
**** 11/14/18 18:36:44 ******* PSpice Lite (March 2016) ******* ID# 10813 ****

 ** Profile: "SCHEMATIC1-Test"  [ c:\users\ethan\documents\ece 3456\lab 4\step b - nor\2input nor cmos-PSpiceFiles\SCHEMATIC1\Test.si


 ****     CIRCUIT DESCRIPTION


******************************************************************************




** Creating circuit file "Test.cir" 
** WARNING: THIS AUTOMATICALLY GENERATED FILE MAY BE OVERWRITTEN BY SUBSEQUENT SIMULATIONS

*Libraries: 
* Profile Libraries :
* Local Libraries :
.LIB "../../../2input nor cmos-pspicefiles/2input nor cmos.lib" 
.LIB "../../../2input nor cmos-PSpiceFiles/2INPUT NOR ENHANCEMENT LOAD.lib" 
* From [PSPICE NETLIST] section of C:\Users\Ethan\AppData\Roaming\SPB_Data\cdssetup\OrCAD_PSpice\17.2.0\PSpice.ini file:
.lib "nomd.lib" 

*Analysis directives: 
.OPTIONS ADVCONV
.PROBE64 V(alias(*)) I(alias(*)) W(alias(*)) D(alias(*)) NOISE(alias(*)) 
.INC "..\SCHEMATIC1.net" 



**** INCLUDING SCHEMATIC1.net ****
* source 2INPUT NOR CMOS
.EXTERNAL INPUT Vout
M_M2         VOUT N00229 0 0 Mbreakn           
M_M3         VOUT N00238 0 0 MbreakN           
V_A         N00229 0 5
V_B         N00238 0 5
V_Vdd         N01147 0 5Vdc
M_M4         N00104 N00229 N01147 N01147 MbreakP           
M_M5         VOUT N00238 N00104 N01147 Mbreakp           

**** RESUMING Test.cir ****
.END

**** 11/14/18 18:36:44 ******* PSpice Lite (March 2016) ******* ID# 10813 ****

 ** Profile: "SCHEMATIC1-Test"  [ c:\users\ethan\documents\ece 3456\lab 4\step b - nor\2input nor cmos-PSpiceFiles\SCHEMATIC1\Test.si


 ****     MOSFET MODEL PARAMETERS


******************************************************************************




               MbreakP         Mbreakn         
               PMOS            NMOS            
       LEVEL    1               1            
           L  100.000000E-06  100.000000E-06 
           W  100.000000E-06  100.000000E-06 
         VTO   -1.32             .91         
          KP  635.200000E-06  685.600000E-06 
       GAMMA    0               0            
         PHI     .6              .6          
      LAMBDA    0               0            
          IS   10.000000E-15   10.000000E-15 
          JS    0               0            
          PB     .8              .8          
        PBSW     .8              .8          
          CJ    0               0            
        CJSW    0               0            
        CGSO    0               0            
        CGDO    0               0            
        CGBO    0               0            
         TOX    0               0            
          XJ    0               0            
       UCRIT   10.000000E+03   10.000000E+03 
      DIOMOD    1               1            
         VFB    0               0            
        LETA    0               0            
        WETA    0               0            
          U0    0               0            
        TEMP    0               0            
         VDD    5               5            
       XPART    0               0            


**** 11/14/18 18:36:44 ******* PSpice Lite (March 2016) ******* ID# 10813 ****

 ** Profile: "SCHEMATIC1-Test"  [ c:\users\ethan\documents\ece 3456\lab 4\step b - nor\2input nor cmos-PSpiceFiles\SCHEMATIC1\Test.si


 ****     SMALL SIGNAL BIAS SOLUTION       TEMPERATURE =   27.000 DEG C


******************************************************************************



 NODE   VOLTAGE     NODE   VOLTAGE     NODE   VOLTAGE     NODE   VOLTAGE


( VOUT) 893.3E-12  (N00104)    5.0000 (N00229)    5.0000 (N00238)    5.0000     

(N01147)    5.0000 




    VOLTAGE SOURCE CURRENTS
    NAME         CURRENT

    V_A          0.000E+00
    V_B          0.000E+00
    V_Vdd       -5.010E-12

    TOTAL POWER DISSIPATION   2.51E-11  WATTS



          JOB CONCLUDED

**** 11/14/18 18:36:44 ******* PSpice Lite (March 2016) ******* ID# 10813 ****

 ** Profile: "SCHEMATIC1-Test"  [ c:\users\ethan\documents\ece 3456\lab 4\step b - nor\2input nor cmos-PSpiceFiles\SCHEMATIC1\Test.si


 ****     JOB STATISTICS SUMMARY


******************************************************************************



  Total job time (using Solver 1)   =        0.00
