
**** 12/06/18 05:02:23 ******* PSpice Lite (March 2016) ******* ID# 10813 ****

 ** Profile: "SCHEMATIC1-bias"  [ C:\Users\Ethan\Documents\ECE 3456\Lab 3\pseudo nmos inverter-pspicefiles\schematic1\bias.sim ] 


 ****     CIRCUIT DESCRIPTION


******************************************************************************




** Creating circuit file "bias.cir" 
** WARNING: THIS AUTOMATICALLY GENERATED FILE MAY BE OVERWRITTEN BY SUBSEQUENT SIMULATIONS

*Libraries: 
* Profile Libraries :
* Local Libraries :
.LIB "../../../pseudo nmos inverter-pspicefiles/enhancement-mode nmos inverter.lib" 
* From [PSPICE NETLIST] section of C:\Users\Ethan\AppData\Roaming\SPB_Data\cdssetup\OrCAD_PSpice\17.2.0\PSpice.ini file:
.lib "nomd.lib" 

*Analysis directives: 
.OP
.OPTIONS ADVCONV
.PROBE64 V(alias(*)) I(alias(*)) W(alias(*)) D(alias(*)) NOISE(alias(*)) 
.INC "..\SCHEMATIC1.net" 



**** INCLUDING SCHEMATIC1.net ****
* source PSEUDO NMOS INVERTER
.EXTERNAL OUTPUT Vout
V_Vdd         N02067 0 5Vdc
M_M1         VOUT N02058 0 0 Mbreakn           
M_M2         VOUT 0 N02067 N02067 Mbreakp           
V_Vdd1         N02058 0 2.78885

**** RESUMING bias.cir ****
.END

**** 12/06/18 05:02:23 ******* PSpice Lite (March 2016) ******* ID# 10813 ****

 ** Profile: "SCHEMATIC1-bias"  [ C:\Users\Ethan\Documents\ECE 3456\Lab 3\pseudo nmos inverter-pspicefiles\schematic1\bias.sim ] 


 ****     MOSFET MODEL PARAMETERS


******************************************************************************




               Mbreakn         Mbreakp         
               NMOS            PMOS            
       LEVEL    1               1            
           L  100.000000E-06  100.000000E-06 
           W  100.000000E-06  100.000000E-06 
         VTO    1              -1            
          KP  400.000000E-06  100.000000E-06 
       GAMMA    0               0            
         PHI     .6              .6          
      LAMBDA    0               0            
          IS   10.000000E-15   10.000000E-15 
          JS    0               0            
          PB     .8              .8          
        PBSW     .8              .8          
          CJ    0               0            
        CJSW    0               0            
        CGSO    0               0            
        CGDO    0               0            
        CGBO    0               0            
         TOX    0               0            
          XJ    0               0            
       UCRIT   10.000000E+03   10.000000E+03 
      DIOMOD    1               1            
         VFB    0               0            
        LETA    0               0            
        WETA    0               0            
          U0    0               0            
        TEMP    0               0            
         VDD    5               5            
       XPART    0               0            


**** 12/06/18 05:02:23 ******* PSpice Lite (March 2016) ******* ID# 10813 ****

 ** Profile: "SCHEMATIC1-bias"  [ C:\Users\Ethan\Documents\ECE 3456\Lab 3\pseudo nmos inverter-pspicefiles\schematic1\bias.sim ] 


 ****     SMALL SIGNAL BIAS SOLUTION       TEMPERATURE =   27.000 DEG C


******************************************************************************



 NODE   VOLTAGE     NODE   VOLTAGE     NODE   VOLTAGE     NODE   VOLTAGE


( VOUT)    2.7889  (N02058)    2.7889 (N02067)    5.0000 




    VOLTAGE SOURCE CURRENTS
    NAME         CURRENT

    V_Vdd       -6.400E-04
    V_Vdd1       0.000E+00

    TOTAL POWER DISSIPATION   3.20E-03  WATTS


**** 12/06/18 05:02:23 ******* PSpice Lite (March 2016) ******* ID# 10813 ****

 ** Profile: "SCHEMATIC1-bias"  [ C:\Users\Ethan\Documents\ECE 3456\Lab 3\pseudo nmos inverter-pspicefiles\schematic1\bias.sim ] 


 ****     OPERATING POINT INFORMATION      TEMPERATURE =   27.000 DEG C


******************************************************************************






**** MOSFETS


NAME         M_M1        M_M2      
MODEL        Mbreakn     Mbreakp   
ID           6.40E-04   -6.40E-04 
VGS          2.79E+00   -5.00E+00 
VDS          2.79E+00   -2.21E+00 
VBS          0.00E+00    0.00E+00 
VTH          1.00E+00   -1.00E+00 
VDSAT        1.79E+00   -4.00E+00 
Lin0/Sat1   -1.00E+00   -1.00E+00 
if          -1.00E+00   -1.00E+00 
ir          -1.00E+00   -1.00E+00 
TAU         -1.00E+00   -1.00E+00 
GM           7.16E-04    2.21E-04 
GDS          0.00E+00    1.79E-04 
GMB          0.00E+00    0.00E+00 
CBD          0.00E+00    0.00E+00 
CBS          0.00E+00    0.00E+00 
CGSOV        0.00E+00    0.00E+00 
CGDOV        0.00E+00    0.00E+00 
CGBOV        0.00E+00    0.00E+00 
CGS          0.00E+00    0.00E+00 
CGD          0.00E+00    0.00E+00 
CGB          0.00E+00    0.00E+00 

          JOB CONCLUDED

**** 12/06/18 05:02:23 ******* PSpice Lite (March 2016) ******* ID# 10813 ****

 ** Profile: "SCHEMATIC1-bias"  [ C:\Users\Ethan\Documents\ECE 3456\Lab 3\pseudo nmos inverter-pspicefiles\schematic1\bias.sim ] 


 ****     JOB STATISTICS SUMMARY


******************************************************************************



  Total job time (using Solver 1)   =         .03
